Circuit: * D:\Ltspice\esercizi\LTspiceXVII\Progettazione_circuiti_elettronici\PROGETTAZIONE OPAMP\AD8066_AD8033\AD8033&AD8067_confronto_stabilita'_slewRate.asc

Direct Newton iteration failed to find .op point.  (Use ".option noopiter" to skip.)
Starting Gmin stepping
Gmin = 10
Gmin = 1.07374
vernier = 0.5
vernier = 0.25
vernier = 0.125
vernier = 0.0625
Gmin = 1.15662
vernier = 0.03125
vernier = 0.015625
vernier = 0.0078125
vernier = 0.00390625
vernier = 0.00195313
Gmin = 1.16559
vernier = 0.000976563
vernier = 0.000488281
Gmin = 0
Gmin stepping succeeded in finding the operating point.


Date: Tue Dec 13 18:19:13 2022
Total elapsed time: 0.670 seconds.

tnom = 27
temp = 27
method = trap
totiter = 1847
traniter = 0
tranpoints = 0
accept = 0
rejected = 0
matrix size = 253
fillins = 564
solver = Normal
Matrix Compiler1:    2350 opcodes
Matrix Compiler2: 27.93 KB object code size  4.2/6.4/[1.8]

