Circuit: * D:\Ltspice\esercizi\LTspiceXVII\Progettazione_circuiti_elettronici\PROGETTAZIONE OPAMP\AD8066_AD8033\AD8033&AD8067_confronto_stabilita'_slewRate.asc

Direct Newton iteration failed to find .op point.  (Use ".option noopiter" to skip.)
Starting Gmin stepping
Gmin = 10
Gmin = 1.07374
vernier = 0.5
vernier = 0.25
vernier = 0.125
vernier = 0.0625
Gmin = 1.15662
vernier = 0.03125
vernier = 0.015625
vernier = 0.0078125
vernier = 0.00390625
vernier = 0.00195313
Gmin = 1.16559
vernier = 0.000976563
vernier = 0.000488281
Gmin = 0
Gmin stepping succeeded in finding the operating point.


Date: Tue Dec 13 18:10:04 2022
Total elapsed time: 0.298 seconds.

tnom = 27
temp = 27
method = modified trap
totiter = 5201
traniter = 3354
tranpoints = 1349
accept = 1265
rejected = 84
matrix size = 129
fillins = 280
solver = Normal
Thread vector: 5.2/3.9[2] 1.6/1.7[1] 0.9/1.5[1] 0.5/1.3[1]  2592/500
Matrix Compiler1: 21.42 KB object code size  3.1/1.7/[0.8]
Matrix Compiler2: 14.05 KB object code size  1.5/2.2/[0.6]

